LTspice 24.1.9 for Windows
Circuit: C:\Users\sakba\Documents\LTspice\solarcell_test_v2\solarcell_test_v2.net
Start Time: Sun Aug  3 13:31:28 2025
solver = Normal
Maximum thread count: 8
tnom = 27
temp = 25
method = trap
Direct Newton iteration for .op point succeeded.
Total elapsed time: 0.331 seconds.

Files loaded:
C:\Users\sakba\Documents\LTspice\solarcell_test_v2\solarcell_test_v2.net
C:\Users\sakba\Desktop\UNITN\Tesi\esperimenti\solarcell\02_library_Complex.txt

