LTspice 24.1.9 for Windows
Circuit: C:\Users\sakba\Documents\LTspice\logic_try\logic_try.net
Start Time: Thu Aug  7 23:12:38 2025
solver = Normal
Maximum thread count: 8
tnom = 27
temp = 27
method = trap
C:\Users\sakba\Documents\LTspice\logic_try\logic_try.net(8): Limiting rise time to 0.0005.

V_test switch_sgn_test 0 PULSE(0 2.5 0 0 0 5m 10m)
^^^^^^^^^^^^^^^^^^^^^^^^^^^^^^^^^^^^^^^^^^^^^^^^^^
C:\Users\sakba\Documents\LTspice\logic_try\logic_try.net(8): Limiting fall time to 0.0005.

V_test switch_sgn_test 0 PULSE(0 2.5 0 0 0 5m 10m)
^^^^^^^^^^^^^^^^^^^^^^^^^^^^^^^^^^^^^^^^^^^^^^^^^^
Direct Newton iteration failed to find .op point.  (Use ".option noopiter" to skip.)
Starting Gmin stepping
Gmin = 10
Gmin = 1.07374
Gmin = 0.115292
Gmin = 0.0123794
Gmin = 0.00132923
Gmin = 0.000142725
Gmin = 1.5325e-05
Gmin = 1.6455e-06
Gmin = 1.76685e-07
Gmin = 1.89714e-08
Gmin = 2.03704e-09
Gmin = 2.18725e-10
Gmin = 2.34854e-11
Gmin = 2.52173e-12
Gmin = 2.70769e-13
Gmin = 0
Gmin stepping succeeded in finding the operating point.

Total elapsed time: 1.622 seconds.

Files loaded:
C:\Users\sakba\Documents\LTspice\logic_try\logic_try.net
C:\Users\sakba\AppData\Local\LTspice\lib\sub\ADG819.sub
C:\Users\sakba\Desktop\UNITN\Tesi\esperimenti\components spice models\tlv3691.txt

